Version 4.1
SHEET 1 880 680
WIRE 288 144 128 144
WIRE 480 160 352 160
WIRE 288 176 208 176
WIRE 128 192 128 144
WIRE 128 320 128 272
WIRE 208 352 208 176
WIRE 272 352 208 352
WIRE 480 352 480 160
WIRE 480 352 352 352
WIRE 208 384 208 352
WIRE 208 528 208 464
FLAG 128 320 0
FLAG 208 528 0
SYMBOL OpAmps\\opamp 320 224 M180
SYMATTR InstName U1
SYMBOL res 368 336 R90
WINDOW 0 0 56 VBottom 2
WINDOW 3 32 56 VTop 2
SYMATTR InstName R1
SYMATTR Value 10k
SYMBOL res 224 480 R180
WINDOW 0 36 76 Left 2
WINDOW 3 36 40 Left 2
SYMATTR InstName R2
SYMATTR Value 1k
SYMBOL voltage 128 176 R0
WINDOW 123 0 0 Left 0
WINDOW 39 0 0 Left 0
SYMATTR InstName V1
SYMATTR Value SINE(0 1mv 1kh)
TEXT 288 472 Left 2 !.tran 0 50ms 45ms 10us
TEXT 296 440 Left 2 !.lib opamp.sub
