Version 4.1
SHEET 1 880 680
WIRE -320 240 -384 240
WIRE -16 240 -320 240
WIRE 272 256 48 256
WIRE 400 256 272 256
WIRE -16 272 -96 272
WIRE -320 288 -320 240
WIRE -96 368 -96 272
WIRE -96 368 -144 368
WIRE -48 368 -96 368
WIRE 272 368 272 256
WIRE 272 368 32 368
WIRE -320 416 -320 368
WIRE -144 496 -144 448
FLAG -144 496 0
FLAG -320 416 0
FLAG -384 240 in
IOPIN -384 240 In
FLAG 400 256 out
IOPIN 400 256 Out
SYMBOL OpAmps\\opamp 16 320 M180
SYMATTR InstName U1
SYMBOL res 48 352 R90
WINDOW 0 0 56 VBottom 2
WINDOW 3 32 56 VTop 2
SYMATTR InstName R1
SYMATTR Value 8.7k
SYMBOL res -128 464 R180
WINDOW 0 36 76 Left 2
WINDOW 3 36 40 Left 2
SYMATTR InstName R2
SYMATTR Value 1k
SYMBOL voltage -320 272 R0
WINDOW 0 38 22 Left 2
WINDOW 3 38 54 Left 2
WINDOW 123 0 0 Left 0
WINDOW 39 0 0 Left 0
SYMATTR InstName V1
SYMATTR Value 1v
TEXT -48 560 Left 2 !.lib opamp.sub
TEXT -40 600 Left 2 !.tran 5ms
