Version 4.1
SHEET 1 880 680
WIRE 224 -112 64 -112
WIRE 384 -112 288 -112
WIRE 224 16 176 16
WIRE 384 16 384 -112
WIRE 384 16 304 16
WIRE -192 144 -208 144
WIRE -64 144 -192 144
WIRE 64 144 64 -112
WIRE 64 144 16 144
WIRE 112 144 64 144
WIRE 176 144 176 16
WIRE 224 144 176 144
WIRE 352 160 288 160
WIRE 384 160 384 16
WIRE 384 160 352 160
WIRE 224 176 192 176
WIRE -208 224 -208 144
WIRE 64 240 64 144
WIRE 192 304 192 176
WIRE -208 368 -208 304
WIRE 64 432 64 320
FLAG 64 432 0
FLAG 192 304 0
FLAG -208 368 0
FLAG -192 144 in
FLAG 352 160 out
SYMBOL OpAmps\\opamp 256 96 R0
SYMATTR InstName U1
SYMBOL res 32 128 R90
WINDOW 0 0 56 VBottom 2
WINDOW 3 32 56 VTop 2
SYMATTR InstName R3
SYMATTR Value 24k
SYMBOL res 80 336 R180
WINDOW 0 36 76 Left 2
WINDOW 3 36 40 Left 2
SYMATTR InstName R6
SYMATTR Value 24.1k
SYMBOL res 320 0 R90
WINDOW 0 0 56 VBottom 2
WINDOW 3 32 56 VTop 2
SYMATTR InstName R7
SYMATTR Value 200k
SYMBOL cap 176 128 R90
WINDOW 0 0 32 VBottom 2
WINDOW 3 32 32 VTop 2
SYMATTR InstName C1
SYMATTR Value 100nF
SYMBOL cap 288 -128 R90
WINDOW 0 0 32 VBottom 2
WINDOW 3 32 32 VTop 2
SYMATTR InstName C2
SYMATTR Value 100nF
SYMBOL voltage -208 208 R0
WINDOW 123 24 124 Left 2
WINDOW 39 0 0 Left 0
SYMATTR Value2 AC 1
SYMATTR InstName V1
SYMATTR Value SINE(0 1 28)
TEXT 256 224 Left 2 !.lib opamp.sub
TEXT 240 264 Left 2 !.ac dec 10 1 1khz
